&HEAD CHID='sprinkler-beneath-ceiling'
      TITLE='Test geometry for verify that a sprinker is beneath the ceiling' /

&TIME T_END=1.0 /

&REAC ID='POLYURETHANE',
      FUEL='REAC_FUEL',
      CO_YIELD=0.05,
      SOOT_YIELD=0.1,
      C=6.3,
      H=7.1,
      O=2.1,
      N=1.0 /
&PROP ACTIVATION_OBSCURATION=12.0,
      ID='Smoke Detector',
      LENGTH=1.8,
      QUANTITY='CHAMBER OBSCURATION' /
&SPEC ID='WATER VAPOR SPK',
      MASS_FRACTION=1.0,
      SPEC_ID='WATER VAPOR' /
&PART COLOR='BLUE',
      DIAMETER=5.0,
      ID='Sprinkler Droplets',
      MONODISPERSE=.TRUE.,
      SPEC_ID='WATER VAPOR SPK'
      SAMPLING_FACTOR=50
      AGE=10 /
&PROP ACTIVATION_TEMPERATURE=74.0,
      FLOW_RATE=70.0,
      ID='Sprinkler', PARTICLE_VELOCITY=10.0, PART_ID='Sprinkler Droplets',
      QUANTITY='SPRINKLER LINK TEMPERATURE',
      RTI=50.0 /

&MESH ID='MainMesh', IJK=10,10,10, XB=0,1,0,1,0,1 /

&SURF ID='Ceiling' COLOR='LIGHT BLUE'  /
&OBST ID='Ceiling' XB=0.4,0.6,0.5,0.6,0.5,0.6 SURF_ID='Ceiling' /

&DEVC ID='RightLobbyDetector',
      PROP_ID='Smoke Detector',
      XYZ=0.45,0.55,0.45 /

&TAIL /
